10

	La 4.278527 2.755739 1.126851
	O 2.389387 -0.641333 -0.145590
	N 2.267752 -2.754655 -0.937177
	H -0.223265 -2.469281 0.112346
	H -0.223265 -1.850008 -1.540952
	H 1.738548 -3.578319 -1.245697
	C 0.156904 -1.673703 -0.532285
	H -0.210141 -0.722989 -0.176177
	H 3.282398 -2.818373 -0.961044
	C 1.648039 -1.723825 -0.551059
