10

	La 4.278527 2.755739 1.126851
	O 3.128416 0.687597 0.352187
	N 3.006781 -1.425725 -0.439400
	H 0.515764 -1.140351 0.610123
	H 0.515764 -0.521078 -1.043175
	H 2.477576 -2.249389 -0.747920
	C 0.895933 -0.344773 -0.034507
	H 0.528888 0.605941 0.321601
	H 4.021427 -1.489443 -0.463267
	C 2.387067 -0.394895 -0.053282
